<?xml version="1.0" encoding="UTF-8"?>
<routes xmlns:xsi="http://www.w3.org/2001/XMLSchema-instance" xsi:noNamespaceSchemaLocation="http://sumo.dlr.de/xsd/routes_file.xsd">
    <!-- Vehicle types with emissions -->
    <vType id="car" accel="2.6" decel="4.5" sigma="0.5" length="5" maxSpeed="55" emissionClass="HBEFA3/PC_G_EU4"/>
    <vType id="bus" accel="1.2" decel="4.0" sigma="0.5" length="12" maxSpeed="40" emissionClass="HBEFA3/Bus"/>
    <vType id="emergency" accel="3.0" decel="5.0" sigma="0.3" length="6" maxSpeed="70" color="1,0,0"/>

    <!-- Define routes -->
    <route id="north_south" edges="north_to_center center_to_south"/>
    <route id="south_north" edges="south_to_center center_to_north"/>
    <route id="east_west" edges="east_to_center center_to_west"/>
    <route id="west_east" edges="west_to_center center_to_east"/>

    <!-- Traffic flows (vehicles/hour) -->
    <flow id="flow_ns" type="car" route="north_south" begin="0" end="3600" probability="0.2"/>
    <flow id="flow_sn" type="car" route="south_north" begin="0" end="3600" probability="0.2"/>
    <flow id="flow_ew" type="car" route="east_west" begin="0" end="3600" probability="0.15"/>
    <flow id="flow_we" type="car" route="west_east" begin="0" end="3600" probability="0.15"/>

    <!-- Bus flows -->
    <flow id="bus_ns" type="bus" route="north_south" begin="0" end="3600" probability="0.02"/>

    <!-- Emergency vehicles (rare) -->
    <flow id="emergency_flow" type="emergency" route="north_south" begin="0" end="3600" probability="0.005"/>
</routes>
